Version 4
SHEET 1 2416 1684
WIRE 352 -80 144 -80
WIRE 1552 -80 1552 -112
WIRE 1120 -64 944 -64
WIRE 144 -16 144 -80
WIRE 208 -16 144 -16
WIRE 352 0 352 -80
WIRE 352 0 272 0
WIRE 480 0 352 0
WIRE 608 0 608 -16
WIRE 608 0 560 0
WIRE -224 16 -224 0
WIRE -144 16 -224 16
WIRE 0 16 -64 16
WIRE 208 16 0 16
WIRE 1024 16 1024 0
WIRE -224 32 -224 16
WIRE 608 32 608 0
WIRE 944 32 944 -64
WIRE 992 32 944 32
WIRE 1696 32 1696 16
WIRE 1120 48 1120 -64
WIRE 1120 48 1056 48
WIRE 1168 48 1120 48
WIRE 1440 48 1248 48
WIRE 1552 48 1552 0
WIRE 1552 48 1504 48
WIRE 1664 48 1552 48
WIRE 240 64 240 32
WIRE 992 64 896 64
WIRE 1552 64 1552 48
WIRE 1856 64 1728 64
WIRE 2080 64 2032 64
WIRE 2192 64 2160 64
WIRE 1664 80 1632 80
WIRE 1024 96 1024 80
WIRE 1696 112 1696 96
WIRE -224 128 -224 112
WIRE 608 128 608 112
WIRE 208 160 176 160
WIRE 320 160 288 160
WIRE 1632 160 1632 80
WIRE 1744 160 1632 160
WIRE 1856 160 1856 64
WIRE 1856 160 1824 160
WIRE 1888 160 1856 160
WIRE 2032 160 2032 64
WIRE 2032 160 1968 160
WIRE 2112 160 2112 144
WIRE 1552 176 1552 144
WIRE 2032 176 2032 160
WIRE 2080 176 2032 176
WIRE 2192 192 2192 64
WIRE 2192 192 2144 192
WIRE 2224 192 2192 192
WIRE 2080 208 2032 208
WIRE -224 240 -224 224
WIRE 1744 240 1632 240
WIRE 1856 240 1824 240
WIRE 1888 240 1856 240
WIRE 2032 240 2032 208
WIRE 2032 240 1968 240
WIRE 2112 240 2112 224
WIRE 1120 256 944 256
WIRE 1552 256 1552 240
WIRE 0 272 0 16
WIRE 64 272 0 272
WIRE 176 272 176 160
WIRE 176 272 144 272
WIRE 208 272 176 272
WIRE 320 288 320 160
WIRE 320 288 272 288
WIRE 480 288 320 288
WIRE 608 288 608 272
WIRE 608 288 560 288
WIRE 208 304 176 304
WIRE 608 320 608 288
WIRE 1696 320 1696 304
WIRE 1024 336 1024 320
WIRE 1632 336 1632 240
WIRE 1664 336 1632 336
WIRE 1920 336 1904 336
WIRE 2032 336 2032 240
WIRE 2032 336 2000 336
WIRE 2064 336 2032 336
WIRE 2192 336 2144 336
WIRE -224 352 -224 320
WIRE -224 352 -288 352
WIRE 240 352 240 320
WIRE 944 352 944 256
WIRE 992 352 944 352
WIRE 1856 352 1856 240
WIRE 1856 352 1728 352
WIRE 1120 368 1120 256
WIRE 1120 368 1056 368
WIRE 1168 368 1120 368
WIRE 1440 368 1248 368
WIRE 1552 368 1552 336
WIRE 1552 368 1504 368
WIRE 1664 368 1552 368
WIRE -224 384 -224 352
WIRE 992 384 912 384
WIRE 1696 400 1696 384
WIRE 64 416 32 416
WIRE 176 416 176 304
WIRE 176 416 144 416
WIRE 304 416 176 416
WIRE 416 416 384 416
WIRE 608 416 608 400
WIRE 1024 416 1024 400
WIRE 1552 416 1552 368
WIRE -224 496 -224 464
WIRE 1552 528 1552 496
WIRE 48 1168 48 1136
WIRE 352 1184 144 1184
WIRE 144 1248 144 1184
WIRE 208 1248 144 1248
WIRE 352 1264 352 1184
WIRE 352 1264 272 1264
WIRE 384 1264 352 1264
WIRE -64 1280 -96 1280
WIRE 48 1280 48 1248
WIRE 48 1280 0 1280
WIRE 208 1280 48 1280
WIRE 48 1328 48 1280
WIRE 240 1328 240 1296
WIRE 48 1440 48 1408
FLAG -224 128 0
FLAG -288 352 0
FLAG -224 224 5V
FLAG 240 -32 5V
FLAG 240 256 5V
FLAG 608 128 0
FLAG 240 64 0
FLAG 240 352 0
FLAG 608 416 0
FLAG 608 -16 I+
FLAG 608 272 I-
FLAG 416 416 0
FLAG 32 416 5V
FLAG 240 1232 5V
FLAG 240 1328 0
FLAG 48 1136 5V
FLAG 48 1440 0
FLAG -96 1280 I+
FLAG 384 1264 Iout
FLAG 1696 112 5V
FLAG 896 64 I+
FLAG 1696 304 5V
FLAG 912 384 I-
FLAG 2112 144 5V
FLAG -224 496 -5V
FLAG 1696 16 0
FLAG 1696 400 0
FLAG 2112 240 0
FLAG 1024 0 5V
FLAG 1024 320 5V
FLAG 1024 96 0
FLAG 1024 416 0
FLAG 1552 176 0
FLAG 1552 528 0
FLAG 1552 -112 5V
FLAG 1552 240 5V
FLAG 1904 336 5V
FLAG 2192 336 0
FLAG -224 0 V_DAC
FLAG 2224 192 V_ADC
SYMBOL voltage -224 16 R0
WINDOW 3 -103 142 Left 2
WINDOW 123 0 0 Left 0
WINDOW 39 0 0 Left 0
SYMATTR Value SINE(1.4 1 1000)
SYMATTR InstName V1
SYMBOL voltage -224 224 R0
WINDOW 123 0 0 Left 0
WINDOW 39 0 0 Left 0
SYMATTR InstName V2
SYMATTR Value 5
SYMBOL Misc\\EuropeanResistor 624 128 R180
WINDOW 0 31 76 Left 2
WINDOW 3 31 40 Left 2
SYMATTR InstName R2
SYMATTR Value 50
SYMBOL Misc\\EuropeanResistor -160 32 R270
WINDOW 0 27 56 VTop 2
WINDOW 3 5 56 VBottom 2
SYMATTR InstName R3
SYMATTR Value 47k
SYMBOL Misc\\EuropeanResistor 160 256 R90
WINDOW 0 5 56 VBottom 2
WINDOW 3 27 56 VTop 2
SYMATTR InstName R4
SYMATTR Value 470k
SYMBOL Misc\\EuropeanResistor 304 144 R90
WINDOW 0 5 56 VBottom 2
WINDOW 3 27 56 VTop 2
SYMATTR InstName R5
SYMATTR Value 470k
SYMBOL Misc\\EuropeanResistor 576 272 R90
WINDOW 0 5 56 VBottom 2
WINDOW 3 27 56 VTop 2
SYMATTR InstName R6
SYMATTR Value 50
SYMBOL Misc\\EuropeanResistor 624 416 R180
WINDOW 0 31 76 Left 2
WINDOW 3 31 40 Left 2
SYMATTR InstName R7
SYMATTR Value 50
SYMBOL Misc\\EuropeanResistor 160 400 R90
WINDOW 0 5 56 VBottom 2
WINDOW 3 27 56 VTop 2
SYMATTR InstName R8
SYMATTR Value 25k
SYMBOL Misc\\EuropeanResistor 400 400 R90
WINDOW 0 5 56 VBottom 2
WINDOW 3 27 56 VTop 2
SYMATTR InstName R9
SYMATTR Value 10k
SYMBOL OpAmps\\LT1413 240 224 R0
SYMATTR InstName U1
SYMBOL OpAmps\\LTC6244 240 0 R0
SYMATTR InstName U3
SYMBOL Misc\\EuropeanResistor 576 -16 R90
WINDOW 0 5 56 VBottom 2
WINDOW 3 27 56 VTop 2
SYMATTR InstName R1
SYMATTR Value 50
SYMBOL OpAmps\\LTC6244 240 1264 R0
SYMATTR InstName U2
SYMBOL Misc\\EuropeanResistor 32 1152 R0
SYMATTR InstName R12
SYMATTR Value 2k
SYMBOL Misc\\EuropeanResistor 32 1312 R0
SYMATTR InstName R13
SYMATTR Value 1k
SYMBOL cap 0 1264 R90
WINDOW 0 0 32 VBottom 2
WINDOW 3 32 32 VTop 2
SYMATTR InstName C3
SYMATTR Value 10µ
SYMBOL OpAmps\\LTC6244 1696 64 M180
SYMATTR InstName U4
SYMBOL OpAmps\\LTC6244 1696 352 R0
SYMATTR InstName U5
SYMBOL Misc\\EuropeanResistor 1616 144 R0
SYMATTR InstName R10
SYMATTR Value 5k
SYMBOL Misc\\EuropeanResistor 1840 144 R90
WINDOW 0 5 56 VBottom 2
WINDOW 3 27 56 VTop 2
SYMATTR InstName R11
SYMATTR Value 1k
SYMBOL Misc\\EuropeanResistor 1840 224 R90
WINDOW 0 5 56 VBottom 2
WINDOW 3 27 56 VTop 2
SYMATTR InstName R14
SYMATTR Value 1k
SYMBOL Misc\\EuropeanResistor 1984 144 R90
WINDOW 0 5 56 VBottom 2
WINDOW 3 27 56 VTop 2
SYMATTR InstName R15
SYMATTR Value 1k
SYMBOL Misc\\EuropeanResistor 1984 224 R90
WINDOW 0 5 56 VBottom 2
WINDOW 3 27 56 VTop 2
SYMATTR InstName R16
SYMATTR Value 1k
SYMBOL OpAmps\\LTC6244 2112 192 R0
SYMATTR InstName U6
SYMBOL Misc\\EuropeanResistor 2176 48 R90
WINDOW 0 5 56 VBottom 2
WINDOW 3 27 56 VTop 2
SYMATTR InstName R18
SYMATTR Value 1k
SYMBOL voltage -224 368 R0
WINDOW 123 0 0 Left 0
WINDOW 39 0 0 Left 0
SYMATTR InstName V3
SYMATTR Value 5
SYMBOL OpAmps\\LTC6244 1024 48 R0
SYMATTR InstName U7
SYMBOL OpAmps\\LTC6244 1024 368 R0
SYMATTR InstName U8
SYMBOL Misc\\EuropeanResistor 1264 32 R90
WINDOW 0 5 56 VBottom 2
WINDOW 3 27 56 VTop 2
SYMATTR InstName R19
SYMATTR Value 50
SYMBOL Misc\\EuropeanResistor 1264 352 R90
WINDOW 0 5 56 VBottom 2
WINDOW 3 27 56 VTop 2
SYMATTR InstName R20
SYMATTR Value 50
SYMBOL Misc\\EuropeanCap 1504 32 R90
WINDOW 0 0 32 VBottom 2
WINDOW 3 32 32 VTop 2
SYMATTR InstName C4
SYMATTR Value 10µ
SYMBOL Misc\\EuropeanCap 1504 352 R90
WINDOW 0 0 32 VBottom 2
WINDOW 3 32 32 VTop 2
SYMATTR InstName C6
SYMATTR Value 10µ
SYMBOL Misc\\EuropeanResistor 1536 -96 R0
SYMATTR InstName R21
SYMATTR Value 3k
SYMBOL Misc\\EuropeanResistor 1536 48 R0
SYMATTR InstName R22
SYMATTR Value 1.5k
SYMBOL Misc\\EuropeanResistor 1536 240 R0
SYMATTR InstName R23
SYMATTR Value 3k
SYMBOL Misc\\EuropeanResistor 1536 400 R0
SYMATTR InstName R24
SYMATTR Value 1.5k
SYMBOL Misc\\EuropeanResistor 2016 320 R90
WINDOW 0 5 56 VBottom 2
WINDOW 3 27 56 VTop 2
SYMATTR InstName R25
SYMATTR Value 3k
SYMBOL Misc\\EuropeanResistor 2160 320 R90
WINDOW 0 5 56 VBottom 2
WINDOW 3 27 56 VTop 2
SYMATTR InstName R26
SYMATTR Value 1.5k
TEXT -136 336 Left 2 !.tran 0 5m 0
TEXT 208 -128 Left 2 ;Sender
TEXT 1520 -184 Left 2 ;Empfänger
TEXT 1688 -32 Left 2 ;Anpassung Verstärkungsfaktor mit R10
TEXT 1848 400 Left 2 ;Subtrahierer mit eingestelltem Offset
